<?xml version="1.0" encoding="UTF-8"?>

<!-- generated on Sun Oct 13 12:17:15 2019 by Eclipse SUMO netconvert Version 1.2.0
This data file and the accompanying materials
are made available under the terms of the Eclipse Public License v2.0
which accompanies this distribution, and is available at
http://www.eclipse.org/legal/epl-v20.html
SPDX-License-Identifier: EPL-2.0
<configuration xmlns:xsi="http://www.w3.org/2001/XMLSchema-instance" xsi:noNamespaceSchemaLocation="http://sumo.dlr.de/xsd/netconvertConfiguration.xsd">

    <input>
        <node-files value="simple_underground_parking_level.nod.xml"/>
        <edge-files value="simple_underground_parking_level.edg.xml"/>
    </input>

    <output>
        <write-license value="true"/>
        <output-file value="simple_underground_parking_level.net.xml"/>
        <output.street-names value="true"/>
    </output>

    <processing>
        <offset.disable-normalization value="true"/>
    </processing>

    <junctions>
        <no-turnarounds value="true"/>
        <junctions.corner-detail value="10"/>
        <junctions.internal-link-detail value="10"/>
    </junctions>

    <report>
        <verbose value="true"/>
        <message-log value="log/messages.log"/>
        <error-log value="log/error.log"/>
    </report>

</configuration>
-->

<net version="1.1" junctionCornerDetail="10" junctionLinkDetail="10" limitTurnSpeed="5.50" xmlns:xsi="http://www.w3.org/2001/XMLSchema-instance" xsi:noNamespaceSchemaLocation="http://sumo.dlr.de/xsd/net_file.xsd">

    <location netOffset="0.00,0.00" convBoundary="1.50,1.00,44.80,54.40" origBoundary="1.50,1.00,44.80,54.40" projParameter="!"/>

    <edge id=":10_0" function="internal">
        <lane id=":10_0_0" index="0" speed="4.66" length="4.00" width="3.60" shape="12.30,52.90 11.82,52.87 11.39,52.77 11.02,52.61 10.71,52.38 10.45,52.09 10.26,51.73 10.11,51.31 10.03,50.83 10.00,50.27"/>
    </edge>
    <edge id=":11_0" function="internal">
        <lane id=":11_0_0" index="0" speed="11.11" length="10.82" width="7.00" shape="10.00,50.07 10.00,39.25"/>
    </edge>
    <edge id=":11_1" function="internal">
        <lane id=":11_1_0" index="0" speed="7.10" length="10.82" width="7.00" shape="17.50,45.05 15.93,44.98 14.54,44.76 13.33,44.41 12.31,43.90 11.48,43.26 10.83,42.47 10.37,41.54 10.09,40.47 10.00,39.25"/>
    </edge>
    <edge id=":12_0" function="internal">
        <lane id=":12_0_0" index="0" speed="5.43" length="4.74" width="3.70" shape="10.00,4.30 10.05,3.87 10.18,3.49 10.41,3.16 10.73,2.88 11.14,2.65 11.64,2.48 12.24,2.35 12.92,2.28 13.70,2.25"/>
    </edge>
    <edge id=":21_0" function="internal">
        <lane id=":21_0_0" index="0" speed="11.11" length="15.00" width="3.60" shape="34.90,45.05 19.90,45.05"/>
    </edge>
    <edge id=":21_1" function="internal">
        <lane id=":21_1_0" index="0" speed="7.42" length="10.82" width="3.60" shape="27.40,39.25 27.31,40.47 27.03,41.54 26.57,42.47 25.92,43.26 25.09,43.90 24.07,44.41 22.86,44.76 21.47,44.98 19.90,45.05"/>
    </edge>
    <edge id=":22_0" function="internal">
        <lane id=":22_0_0" index="0" speed="11.11" length="15.00" width="3.70" shape="19.90,2.25 34.90,2.25"/>
    </edge>
    <edge id=":22_1" function="internal">
        <lane id=":22_1_0" index="0" speed="7.12" length="10.85" width="7.00" shape="19.90,2.25 21.47,2.32 22.86,2.54 24.07,2.90 25.09,3.41 25.92,4.06 26.57,4.85 27.03,5.79 27.31,6.87 27.40,8.10"/>
    </edge>
    <edge id=":31_0" function="internal">
        <lane id=":31_0_0" index="0" speed="11.11" length="8.70" width="3.60" shape="44.80,39.25 44.80,47.95"/>
    </edge>
    <edge id=":31_1" function="internal">
        <lane id=":31_1_0" index="0" speed="7.42" length="10.82" width="3.60" shape="44.80,39.25 44.71,40.47 44.43,41.54 43.97,42.47 43.32,43.26 42.49,43.90 41.47,44.41 40.26,44.76 38.87,44.98 37.30,45.05"/>
    </edge>
    <edge id=":32_0" function="internal">
        <lane id=":32_0_0" index="0" speed="4.86" length="4.42" width="7.00" shape="41.30,2.25 42.03,2.27 42.68,2.34 43.24,2.46 43.72,2.62 44.11,2.82 44.41,3.07 44.63,3.37 44.76,3.71 44.80,4.10"/>
    </edge>
    <edge id=":33_0" function="internal">
        <lane id=":33_0_0" index="0" speed="3.83" length="2.32" width="3.60" shape="44.80,48.15 44.77,48.44 44.69,48.66 44.55,48.81 44.38,48.91 44.16,48.97 43.91,49.00 43.63,49.01 43.32,49.00 43.00,49.00"/>
    </edge>

    <edge id="ascent_to_1st_level" from="33" to="41" priority="2" spreadType="center">
        <lane id="ascent_to_1st_level_0" index="0" speed="11.11" length="22.00" width="3.60" shape="43.00,49.00 21.00,49.00"/>
    </edge>
    <edge id="e_10_11" from="10" to="11" priority="2" spreadType="center">
        <lane id="e_10_11_0" index="0" speed="11.11" length="0.20" width="3.60" shape="10.00,50.27 10.00,50.07"/>
    </edge>
    <edge id="e_11_12" from="11" to="12" priority="2" spreadType="center">
        <lane id="e_11_12_0" index="0" speed="11.11" length="34.95" width="7.00" shape="10.00,39.25 10.00,4.30"/>
    </edge>
    <edge id="e_12_22" from="12" to="22" priority="2" spreadType="center">
        <lane id="e_12_22_0" index="0" speed="11.11" length="6.20" width="3.70" shape="13.70,2.25 19.90,2.25"/>
    </edge>
    <edge id="e_21_11" from="21" to="11" priority="2" spreadType="center">
        <lane id="e_21_11_0" index="0" speed="11.11" length="2.40" width="3.60" shape="19.90,45.05 17.50,45.05"/>
    </edge>
    <edge id="e_22_21" from="22" to="21" priority="2" spreadType="center">
        <lane id="e_22_21_0" index="0" speed="11.11" length="31.15" width="7.00" shape="27.40,8.10 27.40,39.25"/>
    </edge>
    <edge id="e_22_32" from="22" to="32" priority="2" spreadType="center">
        <lane id="e_22_32_0" index="0" speed="11.11" length="6.40" width="3.70" shape="34.90,2.25 41.30,2.25"/>
    </edge>
    <edge id="e_31_21" from="31" to="21" priority="2" spreadType="center">
        <lane id="e_31_21_0" index="0" speed="11.11" length="2.40" width="3.60" shape="37.30,45.05 34.90,45.05"/>
    </edge>
    <edge id="e_31_33" from="31" to="33" priority="2" spreadType="center">
        <lane id="e_31_33_0" index="0" speed="11.11" length="0.20" width="3.60" shape="44.80,47.95 44.80,48.15"/>
    </edge>
    <edge id="e_32_31" from="32" to="31" priority="2" spreadType="center">
        <lane id="e_32_31_0" index="0" speed="11.11" length="35.15" width="7.00" shape="44.80,4.10 44.80,39.25"/>
    </edge>
    <edge id="entering_to_2nd_level" from="01" to="10" priority="2" spreadType="center">
        <lane id="entering_to_2nd_level_0" index="0" speed="11.11" length="29.10" width="3.60" shape="41.40,52.90 12.30,52.90"/>
    </edge>
    <edge id="ped_1" from="100" to="10" priority="2" spreadType="center" shape="1.50,52.00 1.50,54.40 5.00,54.40 5.00,50.50 8.10,50.50">
        <lane id="ped_1_0" index="0" allow="pedestrian" speed="1.60" length="13.50" width="1.00" shape="1.50,51.00 1.50,54.40 5.00,54.40 5.00,50.50 7.70,50.50"/>
    </edge>
    <edge id="ped_2" from="12" to="101" priority="2" spreadType="center" shape="7.30,1.00 4.50,1.00 4.50,4.80 5.60,4.80 5.60,3.00">
        <lane id="ped_2_0" index="0" allow="pedestrian" speed="1.60" length="8.50" width="1.00" shape="6.30,1.00 4.50,1.00 4.50,4.80 5.60,4.80 5.60,3.00"/>
    </edge>

    <junction id="01" type="dead_end" x="41.40" y="52.90" incLanes="" intLanes="" shape="41.40,51.10 41.40,54.70"/>
    <junction id="10" type="right_before_left" x="10.00" y="52.90" incLanes="entering_to_2nd_level_0 ped_1_0" intLanes=":10_0_0" shape="12.30,54.70 12.30,51.10 11.95,51.03 11.85,50.94 11.78,50.83 11.74,50.69 11.73,50.53 11.74,50.35 11.76,50.15 11.78,49.95 11.79,49.73 11.80,49.50 8.20,49.50 8.18,49.67 8.16,49.74 8.13,49.80 8.10,49.85 8.05,49.90 8.00,49.93 7.94,49.96 7.87,49.98 7.79,50.00 7.70,51.00 8.94,51.32 9.34,51.68 9.64,52.11 9.89,52.60 10.11,53.10 10.36,53.59 10.66,54.02 11.06,54.38 11.59,54.61" radius="0.50">
        <request index="0" response="0" foes="0" cont="0"/>
    </junction>
    <junction id="100" type="dead_end" x="1.50" y="51.00" incLanes="" intLanes="" shape="1.00,51.00 2.00,51.00"/>
    <junction id="101" type="dead_end" x="5.00" y="3.00" incLanes="ped_2_0" intLanes="" shape="5.10,3.00 6.10,3.00"/>
    <junction id="11" type="right_before_left" x="10.00" y="45.05" incLanes="e_10_11_0 e_21_11_0" intLanes=":11_0_0 :11_1_0" shape="8.20,50.85 11.80,50.85 11.99,49.53 12.22,48.97 12.55,48.47 12.98,48.04 13.50,47.68 14.11,47.38 14.81,47.15 15.62,46.98 16.51,46.88 17.50,46.85 17.50,43.25 16.18,43.12 15.62,42.95 15.12,42.72 14.69,42.42 14.33,42.06 14.03,41.63 13.80,41.13 13.63,40.57 13.53,39.94 13.50,39.25 6.50,39.25 6.65,41.93 6.81,42.95 7.01,43.85 7.23,44.66 7.47,45.44 7.69,46.25 7.89,47.15 8.05,48.17 8.16,49.39">
        <request index="0" response="00" foes="10" cont="0"/>
        <request index="1" response="01" foes="01" cont="0"/>
    </junction>
    <junction id="12" type="right_before_left" x="10.00" y="2.25" incLanes="e_11_12_0" intLanes=":12_0_0" shape="6.50,4.30 13.50,4.30 13.51,4.23 13.51,4.21 13.53,4.18 13.54,4.16 13.56,4.14 13.58,4.13 13.61,4.11 13.63,4.11 13.67,4.10 13.70,0.40 6.30,0.50 6.30,1.50 6.68,1.66 6.77,1.85 6.80,2.09 6.79,2.37 6.75,2.68 6.69,3.02 6.63,3.36 6.56,3.69 6.52,4.01" radius="0.20">
        <request index="0" response="0" foes="0" cont="0"/>
    </junction>
    <junction id="21" type="right_before_left" x="27.40" y="45.05" incLanes="e_31_21_0 e_22_21_0" intLanes=":21_0_0 :21_1_0" shape="34.90,46.85 34.90,43.25 33.58,43.12 33.02,42.95 32.52,42.72 32.09,42.42 31.73,42.06 31.43,41.63 31.20,41.13 31.03,40.57 30.93,39.94 30.90,39.25 23.90,39.25 23.77,40.57 23.60,41.13 23.37,41.63 23.07,42.06 22.71,42.42 22.28,42.72 21.78,42.95 21.22,43.12 20.59,43.22 19.90,43.25 19.90,46.85">
        <request index="0" response="00" foes="10" cont="0"/>
        <request index="1" response="01" foes="01" cont="0"/>
    </junction>
    <junction id="22" type="right_before_left" x="27.40" y="2.25" incLanes="e_12_22_0" intLanes=":22_0_0 :22_1_0" shape="23.90,8.10 30.90,8.10 31.03,6.78 31.20,6.22 31.43,5.72 31.73,5.29 32.09,4.93 32.52,4.63 33.02,4.40 33.58,4.23 34.21,4.13 34.90,4.10 34.90,0.40 19.90,0.40 19.90,4.10 21.22,4.23 21.78,4.40 22.28,4.63 22.71,4.93 23.07,5.29 23.37,5.72 23.60,6.22 23.77,6.78 23.87,7.41">
        <request index="0" response="00" foes="00" cont="0"/>
        <request index="1" response="00" foes="00" cont="0"/>
    </junction>
    <junction id="31" type="right_before_left" x="44.80" y="45.05" incLanes="e_32_31_0" intLanes=":31_0_0 :31_1_0" shape="43.00,49.00 46.60,49.00 48.30,39.25 41.30,39.25 41.17,40.57 41.00,41.13 40.77,41.63 40.47,42.06 40.11,42.42 39.68,42.72 39.18,42.95 38.62,43.12 37.99,43.22 37.30,43.25 37.30,46.85">
        <request index="0" response="00" foes="00" cont="0"/>
        <request index="1" response="00" foes="00" cont="0"/>
    </junction>
    <junction id="32" type="right_before_left" x="44.80" y="2.25" incLanes="e_22_32_0" intLanes=":32_0_0" shape="41.30,4.10 48.30,4.10 48.07,2.88 47.78,2.36 47.37,1.90 46.85,1.50 46.22,1.16 45.47,0.89 44.60,0.68 43.61,0.52 42.51,0.43 41.30,0.40">
        <request index="0" response="0" foes="0" cont="0"/>
    </junction>
    <junction id="33" type="right_before_left" x="44.80" y="49.00" incLanes="e_31_33_0" intLanes=":33_0_0" shape="46.60,47.20 43.00,47.20 43.00,50.80 44.19,50.68 44.70,50.53 45.14,50.32 45.53,50.06 45.86,49.73 46.12,49.34 46.33,48.90 46.48,48.39 46.57,47.82">
        <request index="0" response="0" foes="0" cont="0"/>
    </junction>
    <junction id="41" type="dead_end" x="21.00" y="49.00" incLanes="ascent_to_1st_level_0" intLanes="" shape="21.00,50.80 21.00,47.20"/>

    <connection from="e_10_11" to="e_11_12" fromLane="0" toLane="0" via=":11_0_0" dir="s" state="="/>
    <connection from="e_11_12" to="e_12_22" fromLane="0" toLane="0" via=":12_0_0" dir="l" state="="/>
    <connection from="e_12_22" to="e_22_32" fromLane="0" toLane="0" via=":22_0_0" dir="s" state="="/>
    <connection from="e_12_22" to="e_22_21" fromLane="0" toLane="0" via=":22_1_0" dir="l" state="="/>
    <connection from="e_21_11" to="e_11_12" fromLane="0" toLane="0" via=":11_1_0" dir="l" state="="/>
    <connection from="e_22_21" to="e_21_11" fromLane="0" toLane="0" via=":21_1_0" dir="l" state="="/>
    <connection from="e_22_32" to="e_32_31" fromLane="0" toLane="0" via=":32_0_0" dir="l" state="="/>
    <connection from="e_31_21" to="e_21_11" fromLane="0" toLane="0" via=":21_0_0" dir="s" state="="/>
    <connection from="e_31_33" to="ascent_to_1st_level" fromLane="0" toLane="0" via=":33_0_0" dir="l" state="="/>
    <connection from="e_32_31" to="e_31_33" fromLane="0" toLane="0" via=":31_0_0" dir="s" state="="/>
    <connection from="e_32_31" to="e_31_21" fromLane="0" toLane="0" via=":31_1_0" dir="l" state="="/>
    <connection from="entering_to_2nd_level" to="e_10_11" fromLane="0" toLane="0" via=":10_0_0" dir="l" state="="/>

    <connection from=":10_0" to="e_10_11" fromLane="0" toLane="0" dir="l" state="M"/>
    <connection from=":11_0" to="e_11_12" fromLane="0" toLane="0" dir="s" state="M"/>
    <connection from=":11_1" to="e_11_12" fromLane="0" toLane="0" dir="l" state="M"/>
    <connection from=":12_0" to="e_12_22" fromLane="0" toLane="0" dir="l" state="M"/>
    <connection from=":21_0" to="e_21_11" fromLane="0" toLane="0" dir="s" state="M"/>
    <connection from=":21_1" to="e_21_11" fromLane="0" toLane="0" dir="l" state="M"/>
    <connection from=":22_0" to="e_22_32" fromLane="0" toLane="0" dir="s" state="M"/>
    <connection from=":22_1" to="e_22_21" fromLane="0" toLane="0" dir="l" state="M"/>
    <connection from=":31_0" to="e_31_33" fromLane="0" toLane="0" dir="s" state="M"/>
    <connection from=":31_1" to="e_31_21" fromLane="0" toLane="0" dir="l" state="M"/>
    <connection from=":32_0" to="e_32_31" fromLane="0" toLane="0" dir="l" state="M"/>
    <connection from=":33_0" to="ascent_to_1st_level" fromLane="0" toLane="0" dir="l" state="M"/>

</net>
