<?xml version="1.0" encoding="UTF-8"?>
<routes xmlns:xsi="http://www.w3.org/2001/XMLSchema-instance" xsi:noNamespaceSchemaLocation="http://sumo.dlr.de/xsd/routes_file.xsd">
    
  <!-- Vehicle Types -->
  <vType id="PKW_1"    vClass="passenger"  guiShape="passenger/sedan"       color="1,1,0"   />   
  
  <!-- Vehicle Flow -->  
  <flow id="Flow_1" color="1,1,0" begin="0" end="7200" from="entering_to_2nd_level" to="ascent_to_1st_level" period="10" type="PKW_1">
    <stop parkingArea="Parking_Bay_I"         duration="30" parking="true" lane="e_11_12_0"/>
    <stop parkingArea="Parking_Bay_II_LEFT"   duration="20" parking="true" lane="e_11_12_0"/>
    <stop parkingArea="Parking_Bay_II_RIGHT"  duration="20" parking="true" lane="e_22_21_0"/>
    <stop parkingArea="Parking_Bay_III_LEFT"  duration="20" parking="true" lane="e_22_21_0"/>
    <stop parkingArea="Parking_Bay_III_RIGHT" duration="20" parking="true" lane="e_32_31_0"/>
    <stop parkingArea="Parking_Bay_IV"        duration="20" parking="true" lane="e_32_31_0"/>
  </flow>
  
  <!-- Pedestrian Flow -->
  <personFlow id="p" begin="0" end="7200" period="10">
    <walk from="ped_1" to="ped_2"/>
  </personFlow>
</routes>